data_zif_tbp_im_ABW
_audit_creation_date              2017-11-11
_audit_creation_method            'Materials Studio'
_symmetry_space_group_name_H-M    'P1'
_symmetry_Int_Tables_number       1
_symmetry_cell_setting            triclinic
loop_
_symmetry_equiv_pos_as_xyz
  x,y,z
_cell_length_a                    16.6880
_cell_length_b                    15.7095
_cell_length_c                    9.5363
_cell_angle_alpha                 90.0410
_cell_angle_beta                  89.2750
_cell_angle_gamma                 89.9950
loop_
_atom_site_label
_atom_site_fract_x
_atom_site_fract_y
_atom_site_fract_z
_atom_site_charge
Zn    0.35440   0.37570   0.24920  0
Zn    0.63765   0.66270   0.73392  0
Zn    0.13741   0.87575   0.75423  0
Zn    0.85411   0.16290   0.26334  0
Zn    0.18660   0.06532   0.25378  0
Zn    0.80498   0.97331   0.76379  0
Zn    0.30517   0.56529   0.75002  0
Zn    0.68674   0.47336   0.23314  0
C     0.01948   0.11049   0.24553  0
N     0.08753   0.11213   0.17298  0
N     0.96088   0.14525   0.17314  0
C     0.07222   0.14957   0.04969  0
C    -0.00730   0.17082   0.05004  0
H     0.01310   0.08613   0.35119  0
H     0.96071   0.20466  -0.03060  0
H     0.11636   0.16186  -0.03197  0
C     0.96716   0.91507   0.76504  0
N     0.89531   0.89565   0.81662  0
N     0.02213   0.86093   0.80902  0
C     0.90474   0.82665   0.89801  0
C     0.98423   0.80450   0.89229  0
H     0.97954   0.96895   0.69750  0
H     0.01295   0.75254   0.94652  0
H     0.85739   0.79586   0.95779  0
C     0.47210   0.60629   0.73334  0
N     0.40289   0.61329   0.66841  0
N     0.52832   0.64948   0.66561  0
C     0.41524   0.66190   0.55450  0
C     0.49421   0.68469   0.55281  0
H     0.48073   0.57286   0.83116  0
H     0.52456   0.72551   0.47786  0
H     0.36951   0.68075   0.48133  0
C     0.52393   0.42272   0.26800  0
N     0.59662   0.40186   0.31128  0
N     0.47018   0.36493   0.30640  0
C     0.58906   0.32850   0.38243  0
C     0.50973   0.30549   0.37963  0
H     0.51096   0.47750   0.20333  0
H     0.48295   0.24854   0.42341  0
H     0.63818   0.29276   0.42638  0
C     0.26594   0.22510   0.18979  0
N     0.27322   0.14205   0.16701  0
N     0.32820   0.26819   0.13852  0
C     0.34121   0.13176   0.09192  0
C     0.37637   0.21048   0.07638  0
H     0.21936   0.25279   0.25498  0
H     0.43672   0.22306   0.03926  0
H     0.36617   0.07096   0.06087  0
C     0.71526   0.82431   0.74269  0
N     0.70794   0.90592   0.70822  0
N     0.64481   0.78870   0.77068  0
C     0.62918   0.92346   0.71419  0
C     0.58960   0.84971   0.75048  0
H     0.77155   0.79037   0.74475  0
H     0.52545   0.83977   0.75344  0
H     0.60327   0.98616   0.70309  0
C     0.22661   0.72535   0.69131  0
N     0.21916   0.64258   0.66628  0
N     0.16551   0.76943   0.64075  0
C     0.15219   0.63346   0.59098  0
C     0.11780   0.71261   0.57732  0
H     0.27229   0.75204   0.75741  0
H     0.05797   0.72600   0.54078  0
H     0.12738   0.57309   0.55833  0
C     0.78312   0.32936   0.22597  0
N     0.78862   0.41129   0.25736  0
N     0.85079   0.28940   0.25242  0
C     0.86331   0.42503   0.30255  0
C     0.90246   0.34828   0.29933  0
H     0.72854   0.29817   0.19350  0
H     0.96179   0.33479   0.33807  0
H     0.88586   0.48531   0.34030  0
C     0.14914   0.99612   0.52324  0
N     0.18651   0.06291   0.46755  0
N     0.16407   0.98875   0.65898  0
C     0.22547   1.10119   0.57273  1
C     0.21104   1.05499   0.69285  1
H     0.11832   0.94830   0.46243  0
H     0.23904   1.06382   0.79363  1
H     0.26724   1.15332   0.56016  1
C     0.80703   0.05966   0.03678  0
N     0.75559   0.02289   0.95117  0
N     0.77093   0.09735   0.14604  0
C     0.68281   0.03492   1.01075  0
C     0.69234   0.08167   0.13190  0
H     0.87064   0.06069   1.01617  0
H     0.64556   0.10511   0.20144  0
H     0.62668   0.01445   0.96663  0
C     0.34113   0.49543   1.01777  0
N     0.30391   0.56236   0.96373  0
N     0.32633   0.48816   0.15422  0
C     0.26507   0.60074   1.07064  0
C     0.27941   0.55447   0.19010  0
H     0.37224   0.44774   0.95570  0
H     0.25198   0.56378   0.29240  0
H     0.22383   0.65335   1.06009  0
C     0.67299   0.58646   0.46733  0
N     0.70474   0.58554   0.33885  0
N     0.69634   0.65383   0.54084  0
C     0.75111   0.65529   0.32923  0
C     0.74509   0.69852   0.45472  0
H     0.63344   0.53748   0.50807  0
H     0.77338   0.75835   0.48051  0
H     0.78827   0.67178   0.23947  0
C     0.16835   0.93968   0.03161  0
N     0.20673   0.94718   0.15308  0
N     0.19620   0.87602   0.95217  0
C     0.26089   0.88383   0.15312  0
C     0.25396   0.83924   1.02888  0
H     0.12346  -0.01600   0.99616  0
H     0.29197   0.78756   0.99380  0
H     0.30643   0.87529   0.23165  0
C     0.84772   0.06849   0.52118  0
N     0.83808   0.07377   0.65862  0
N     0.85608   0.14518   0.46644  0
C     0.84193   0.15638   0.69379  0
C     0.85334   0.20137   0.57268  0
H     0.84215   0.01040   0.46089  0
H     0.85393   0.26987   0.56120  0
H     0.83139   0.18172   0.79794  0
C     0.32252   0.44053   0.52609  0
N     0.28475   0.44755   0.64980  0
N     0.29495   0.37644   0.44842  0
C     0.23096   0.38387   0.65284  0
C     0.23770   0.33930   0.52824  0
H     0.36694   0.48542   0.48832  0
H     0.20017   0.28711   0.49539  0
H     0.18598   0.37486   0.73415  0
C     0.65291   0.55582   0.97681  0
N     0.68212   0.48435   0.02841  0
N     0.67382   0.56445   0.84350  0
C     0.72295   0.44549  -0.07563  0
C     0.71710   0.49555   0.80768  0
H     0.62084   0.60335   0.03766  0
H     0.74398   0.48428   0.70551  0
H     0.75879   0.38860  -0.06429  0
