data_zif_tbp_im_SOD
_audit_creation_date              2017-11-12
_audit_creation_method            'Materials Studio'
_symmetry_space_group_name_H-M    'P1'
_symmetry_Int_Tables_number       1
_symmetry_cell_setting            triclinic
loop_
_symmetry_equiv_pos_as_xyz
  x,y,z
_cell_length_a                    16.2771
_cell_length_b                    16.2771
_cell_length_c                    16.2771
_cell_angle_alpha                 90.0000
_cell_angle_beta                  90.0000
_cell_angle_gamma                 90.0000
loop_
_atom_site_label
_atom_site_type_symbol
_atom_site_fract_x
_atom_site_fract_y
_atom_site_fract_z
_atom_site_U_iso_or_equiv
_atom_site_adp_type
_atom_site_occupancy
Zn1    Zn    0.25000   0.50000   0.00000   0.00000  Uiso   1.00
Zn2    Zn    0.75000   0.00000   0.50000   0.00000  Uiso   1.00
Zn3    Zn    0.25000   0.00000   0.50000   0.00000  Uiso   1.00
Zn4    Zn    0.75000   0.50000   0.00000   0.00000  Uiso   1.00
Zn5    Zn    0.00000   0.25000   0.50000   0.00000  Uiso   1.00
Zn6    Zn    0.50000   0.75000   0.00000   0.00000  Uiso   1.00
Zn7    Zn    0.50000   0.00000   0.25000   0.00000  Uiso   1.00
Zn8    Zn    0.00000   0.50000   0.75000   0.00000  Uiso   1.00
Zn9    Zn    0.50000   0.25000   0.00000   0.00000  Uiso   1.00
Zn10   Zn    0.00000   0.75000   0.50000   0.00000  Uiso   1.00
Zn11   Zn    0.00000   0.50000   0.25000   0.00000  Uiso   1.00
Zn12   Zn    0.50000   0.00000   0.75000   0.00000  Uiso   1.00
C13    C     0.62042   0.00000   0.37958   0.00000  Uiso   1.00
N14    N     0.60403   0.00000   0.29765   0.00000  Uiso   1.00
N15    N     0.70235   0.00000   0.39597   0.00000  Uiso   1.00
C16    C     0.68004   0.00000   0.26008   0.00000  Uiso   1.00
C17    C     0.73992   0.00000   0.31996   0.00000  Uiso   1.00
H18    H     0.57331   0.00000   0.42669   0.00000  Uiso   1.00
H19    H     0.80626   0.00000   0.31383   0.00000  Uiso   1.00
H20    H     0.68617   0.00000   0.19374   0.00000  Uiso   1.00
C21    C     0.12042   0.50000   0.87958   0.00000  Uiso   1.00
N22    N     0.10403   0.50000   0.79765   0.00000  Uiso   1.00
N23    N     0.20235   0.50000   0.89597   0.00000  Uiso   1.00
C24    C     0.18004   0.50000   0.76008   0.00000  Uiso   1.00
C25    C     0.23992   0.50000   0.81996   0.00000  Uiso   1.00
H26    H     0.07331   0.50000   0.92669   0.00000  Uiso   1.00
H27    H     0.30626   0.50000   0.81383   0.00000  Uiso   1.00
H28    H     0.18617   0.50000   0.69374   0.00000  Uiso   1.00
C29    C     0.37958   0.00000   0.37958   0.00000  Uiso   1.00
N30    N     0.39597   0.00000   0.29765   0.00000  Uiso   1.00
N31    N     0.29765   0.00000   0.39597   0.00000  Uiso   1.00
C32    C     0.31996   0.00000   0.26008   0.00000  Uiso   1.00
C33    C     0.26008   0.00000   0.31996   0.00000  Uiso   1.00
H34    H     0.42669   0.00000   0.42669   0.00000  Uiso   1.00
H35    H     0.19374   0.00000   0.31383   0.00000  Uiso   1.00
H36    H     0.31383   0.00000   0.19374   0.00000  Uiso   1.00
C37    C     0.87958   0.50000   0.87958   0.00000  Uiso   1.00
N38    N     0.89597   0.50000   0.79765   0.00000  Uiso   1.00
N39    N     0.79765   0.50000   0.89597   0.00000  Uiso   1.00
C40    C     0.81996   0.50000   0.76008   0.00000  Uiso   1.00
C41    C     0.76008   0.50000   0.81996   0.00000  Uiso   1.00
H42    H     0.92669   0.50000   0.92669   0.00000  Uiso   1.00
H43    H     0.69374   0.50000   0.81383   0.00000  Uiso   1.00
H44    H     0.81383   0.50000   0.69374   0.00000  Uiso   1.00
C45    C     0.12042   0.50000   0.12042   0.00000  Uiso   1.00
N46    N     0.10403   0.50000   0.20235   0.00000  Uiso   1.00
N47    N     0.20235   0.50000   0.10403   0.00000  Uiso   1.00
C48    C     0.18004   0.50000   0.23992   0.00000  Uiso   1.00
C49    C     0.23992   0.50000   0.18004   0.00000  Uiso   1.00
H50    H     0.07331   0.50000   0.07331   0.00000  Uiso   1.00
H51    H     0.30626   0.50000   0.18617   0.00000  Uiso   1.00
H52    H     0.18617   0.50000   0.30626   0.00000  Uiso   1.00
C53    C     0.62042   0.00000   0.62042   0.00000  Uiso   1.00
N54    N     0.60403   0.00000   0.70235   0.00000  Uiso   1.00
N55    N     0.70235   0.00000   0.60403   0.00000  Uiso   1.00
C56    C     0.68004   0.00000   0.73992   0.00000  Uiso   1.00
C57    C     0.73992   0.00000   0.68004   0.00000  Uiso   1.00
H58    H     0.57331   0.00000   0.57331   0.00000  Uiso   1.00
H59    H     0.80626   0.00000   0.68617   0.00000  Uiso   1.00
H60    H     0.68617   0.00000   0.80626   0.00000  Uiso   1.00
C61    C     0.87958   0.50000   0.12042   0.00000  Uiso   1.00
N62    N     0.89597   0.50000   0.20235   0.00000  Uiso   1.00
N63    N     0.79765   0.50000   0.10403   0.00000  Uiso   1.00
C64    C     0.81996   0.50000   0.23992   0.00000  Uiso   1.00
C65    C     0.76008   0.50000   0.18004   0.00000  Uiso   1.00
H66    H     0.92669   0.50000   0.07331   0.00000  Uiso   1.00
H67    H     0.69374   0.50000   0.18617   0.00000  Uiso   1.00
H68    H     0.81383   0.50000   0.30626   0.00000  Uiso   1.00
C69    C     0.37958   0.00000   0.62042   0.00000  Uiso   1.00
N70    N     0.39597   0.00000   0.70235   0.00000  Uiso   1.00
N71    N     0.29765   0.00000   0.60403   0.00000  Uiso   1.00
C72    C     0.31996   0.00000   0.73992   0.00000  Uiso   1.00
C73    C     0.26008   0.00000   0.68004   0.00000  Uiso   1.00
H74    H     0.42669   0.00000   0.57331   0.00000  Uiso   1.00
H75    H     0.19374   0.00000   0.68617   0.00000  Uiso   1.00
H76    H     0.31383   0.00000   0.80626   0.00000  Uiso   1.00
C77    C     0.37958   0.62042   0.00000   0.00000  Uiso   1.00
N78    N     0.39597   0.70235   0.00000   0.00000  Uiso   1.00
N79    N     0.29765   0.60403   0.00000   0.00000  Uiso   1.00
C80    C     0.31996   0.73992   0.00000   0.00000  Uiso   1.00
C81    C     0.26008   0.68004   0.00000   0.00000  Uiso   1.00
H82    H     0.42669   0.57331   0.00000   0.00000  Uiso   1.00
H83    H     0.19374   0.68617   0.00000   0.00000  Uiso   1.00
H84    H     0.31383   0.80626   0.00000   0.00000  Uiso   1.00
C85    C     0.87958   0.12042   0.50000   0.00000  Uiso   1.00
N86    N     0.89597   0.20235   0.50000   0.00000  Uiso   1.00
N87    N     0.79765   0.10403   0.50000   0.00000  Uiso   1.00
C88    C     0.81996   0.23992   0.50000   0.00000  Uiso   1.00
C89    C     0.76008   0.18004   0.50000   0.00000  Uiso   1.00
H90    H     0.92669   0.07331   0.50000   0.00000  Uiso   1.00
H91    H     0.69374   0.18617   0.50000   0.00000  Uiso   1.00
H92    H     0.81383   0.30626   0.50000   0.00000  Uiso   1.00
C93    C     0.00000   0.37958   0.62042   0.00000  Uiso   1.00
N94    N     0.00000   0.39597   0.70235   0.00000  Uiso   1.00
N95    N     0.00000   0.29765   0.60403   0.00000  Uiso   1.00
C96    C     0.00000   0.31996   0.73992   0.00000  Uiso   1.00
C97    C     0.00000   0.26008   0.68004   0.00000  Uiso   1.00
H98    H     0.00000   0.42669   0.57331   0.00000  Uiso   1.00
H99    H     0.00000   0.19374   0.68617   0.00000  Uiso   1.00
H100   H     0.00000   0.31383   0.80626   0.00000  Uiso   1.00
C101   C     0.50000   0.87958   0.12042   0.00000  Uiso   1.00
N102   N     0.50000   0.89597   0.20235   0.00000  Uiso   1.00
N103   N     0.50000   0.79765   0.10403   0.00000  Uiso   1.00
C104   C     0.50000   0.81996   0.23992   0.00000  Uiso   1.00
C105   C     0.50000   0.76008   0.18004   0.00000  Uiso   1.00
H106   H     0.50000   0.92669   0.07331   0.00000  Uiso   1.00
H107   H     0.50000   0.69374   0.18617   0.00000  Uiso   1.00
H108   H     0.50000   0.81383   0.30626   0.00000  Uiso   1.00
C109   C     0.12042   0.87958   0.50000   0.00000  Uiso   1.00
N110   N     0.10403   0.79765   0.50000   0.00000  Uiso   1.00
N111   N     0.20235   0.89597   0.50000   0.00000  Uiso   1.00
C112   C     0.18004   0.76008   0.50000   0.00000  Uiso   1.00
C113   C     0.23992   0.81996   0.50000   0.00000  Uiso   1.00
H114   H     0.07331   0.92669   0.50000   0.00000  Uiso   1.00
H115   H     0.30626   0.81383   0.50000   0.00000  Uiso   1.00
H116   H     0.18617   0.69374   0.50000   0.00000  Uiso   1.00
C117   C     0.62042   0.37958   0.00000   0.00000  Uiso   1.00
N118   N     0.60403   0.29765   0.00000   0.00000  Uiso   1.00
N119   N     0.70235   0.39597   0.00000   0.00000  Uiso   1.00
C120   C     0.68004   0.26008   0.00000   0.00000  Uiso   1.00
C121   C     0.73992   0.31996   0.00000   0.00000  Uiso   1.00
H122   H     0.57331   0.42669   0.00000   0.00000  Uiso   1.00
H123   H     0.80626   0.31383   0.00000   0.00000  Uiso   1.00
H124   H     0.68617   0.19374   0.00000   0.00000  Uiso   1.00
C125   C     0.00000   0.37958   0.37958   0.00000  Uiso   1.00
N126   N     0.00000   0.39597   0.29765   0.00000  Uiso   1.00
N127   N     0.00000   0.29765   0.39597   0.00000  Uiso   1.00
C128   C     0.00000   0.31996   0.26008   0.00000  Uiso   1.00
C129   C     0.00000   0.26008   0.31996   0.00000  Uiso   1.00
H130   H     0.00000   0.42669   0.42669   0.00000  Uiso   1.00
H131   H     0.00000   0.19374   0.31383   0.00000  Uiso   1.00
H132   H     0.00000   0.31383   0.19374   0.00000  Uiso   1.00
C133   C     0.50000   0.87958   0.87958   0.00000  Uiso   1.00
N134   N     0.50000   0.89597   0.79765   0.00000  Uiso   1.00
N135   N     0.50000   0.79765   0.89597   0.00000  Uiso   1.00
C136   C     0.50000   0.81996   0.76008   0.00000  Uiso   1.00
C137   C     0.50000   0.76008   0.81996   0.00000  Uiso   1.00
H138   H     0.50000   0.92669   0.92669   0.00000  Uiso   1.00
H139   H     0.50000   0.69374   0.81383   0.00000  Uiso   1.00
H140   H     0.50000   0.81383   0.69374   0.00000  Uiso   1.00
C141   C     0.37958   0.37958   0.00000   0.00000  Uiso   1.00
N142   N     0.39597   0.29765   0.00000   0.00000  Uiso   1.00
N143   N     0.29765   0.39597   0.00000   0.00000  Uiso   1.00
C144   C     0.31996   0.26008   0.00000   0.00000  Uiso   1.00
C145   C     0.26008   0.31996   0.00000   0.00000  Uiso   1.00
H146   H     0.42669   0.42669   0.00000   0.00000  Uiso   1.00
H147   H     0.19374   0.31383   0.00000   0.00000  Uiso   1.00
H148   H     0.31383   0.19374   0.00000   0.00000  Uiso   1.00
C149   C     0.87958   0.87958   0.50000   0.00000  Uiso   1.00
N150   N     0.89597   0.79765   0.50000   0.00000  Uiso   1.00
N151   N     0.79765   0.89597   0.50000   0.00000  Uiso   1.00
C152   C     0.81996   0.76008   0.50000   0.00000  Uiso   1.00
C153   C     0.76008   0.81996   0.50000   0.00000  Uiso   1.00
H154   H     0.92669   0.92669   0.50000   0.00000  Uiso   1.00
H155   H     0.69374   0.81383   0.50000   0.00000  Uiso   1.00
H156   H     0.81383   0.69374   0.50000   0.00000  Uiso   1.00
C157   C     0.50000   0.12042   0.12042   0.00000  Uiso   1.00
N158   N     0.50000   0.20235   0.10403   0.00000  Uiso   1.00
N159   N     0.50000   0.10403   0.20235   0.00000  Uiso   1.00
C160   C     0.50000   0.23992   0.18004   0.00000  Uiso   1.00
C161   C     0.50000   0.18004   0.23992   0.00000  Uiso   1.00
H162   H     0.50000   0.07331   0.07331   0.00000  Uiso   1.00
H163   H     0.50000   0.18617   0.30626   0.00000  Uiso   1.00
H164   H     0.50000   0.30626   0.18617   0.00000  Uiso   1.00
C165   C     0.00000   0.62042   0.62042   0.00000  Uiso   1.00
N166   N     0.00000   0.70235   0.60403   0.00000  Uiso   1.00
N167   N     0.00000   0.60403   0.70235   0.00000  Uiso   1.00
C168   C     0.00000   0.73992   0.68004   0.00000  Uiso   1.00
C169   C     0.00000   0.68004   0.73992   0.00000  Uiso   1.00
H170   H     0.00000   0.57331   0.57331   0.00000  Uiso   1.00
H171   H     0.00000   0.68617   0.80626   0.00000  Uiso   1.00
H172   H     0.00000   0.80626   0.68617   0.00000  Uiso   1.00
C173   C     0.12042   0.12042   0.50000   0.00000  Uiso   1.00
N174   N     0.10403   0.20235   0.50000   0.00000  Uiso   1.00
N175   N     0.20235   0.10403   0.50000   0.00000  Uiso   1.00
C176   C     0.18004   0.23992   0.50000   0.00000  Uiso   1.00
C177   C     0.23992   0.18004   0.50000   0.00000  Uiso   1.00
H178   H     0.07331   0.07331   0.50000   0.00000  Uiso   1.00
H179   H     0.30626   0.18617   0.50000   0.00000  Uiso   1.00
H180   H     0.18617   0.30626   0.50000   0.00000  Uiso   1.00
C181   C     0.62042   0.62042   0.00000   0.00000  Uiso   1.00
N182   N     0.60403   0.70235   0.00000   0.00000  Uiso   1.00
N183   N     0.70235   0.60403   0.00000   0.00000  Uiso   1.00
C184   C     0.68004   0.73992   0.00000   0.00000  Uiso   1.00
C185   C     0.73992   0.68004   0.00000   0.00000  Uiso   1.00
H186   H     0.57331   0.57331   0.00000   0.00000  Uiso   1.00
H187   H     0.80626   0.68617   0.00000   0.00000  Uiso   1.00
H188   H     0.68617   0.80626   0.00000   0.00000  Uiso   1.00
C189   C     0.50000   0.12042   0.87958   0.00000  Uiso   1.00
N190   N     0.50000   0.10403   0.79765   0.00000  Uiso   1.00
N191   N     0.50000   0.20235   0.89597   0.00000  Uiso   1.00
C192   C     0.50000   0.18004   0.76008   0.00000  Uiso   1.00
C193   C     0.50000   0.23992   0.81996   0.00000  Uiso   1.00
H194   H     0.50000   0.07331   0.92669   0.00000  Uiso   1.00
H195   H     0.50000   0.30626   0.81383   0.00000  Uiso   1.00
H196   H     0.50000   0.18617   0.69374   0.00000  Uiso   1.00
C197   C     0.00000   0.62042   0.37958   0.00000  Uiso   1.00
N198   N     0.00000   0.60403   0.29765   0.00000  Uiso   1.00
N199   N     0.00000   0.70235   0.39597   0.00000  Uiso   1.00
C200   C     0.00000   0.68004   0.26008   0.00000  Uiso   1.00
C201   C     0.00000   0.73992   0.31996   0.00000  Uiso   1.00
H202   H     0.00000   0.57331   0.42669   0.00000  Uiso   1.00
H203   H     0.00000   0.80626   0.31383   0.00000  Uiso   1.00
H204   H     0.00000   0.68617   0.19374   0.00000  Uiso   1.00
loop_
_geom_bond_atom_site_label_1
_geom_bond_atom_site_label_2
_geom_bond_distance
_geom_bond_site_symmetry_2
_ccdc_geom_bond_type
Zn1    N23     1.862   1_554 S
Zn1    N47     1.862   .     S
Zn1    N79     1.862   .     S
Zn1    N143    1.862   .     S
Zn2    N15     1.862   .     S
Zn2    N55     1.862   .     S
Zn2    N87     1.862   .     S
Zn2    N151    1.862   1_545 S
Zn3    N31     1.862   .     S
Zn3    N71     1.862   .     S
Zn3    N111    1.862   1_545 S
Zn3    N175    1.862   .     S
Zn4    N39     1.862   1_554 S
Zn4    N63     1.862   .     S
Zn4    N119    1.862   .     S
Zn4    N183    1.862   .     S
Zn5    N86     1.862   1_455 S
Zn5    N95     1.862   .     S
Zn5    N127    1.862   .     S
Zn5    N174    1.862   .     S
Zn6    N78     1.862   .     S
Zn6    N103    1.862   .     S
Zn6    N135    1.862   1_554 S
Zn6    N182    1.862   .     S
Zn7    N14     1.862   .     S
Zn7    N30     1.862   .     S
Zn7    N102    1.862   1_545 S
Zn7    N159    1.862   .     S
Zn8    N22     1.862   .     S
Zn8    N38     1.862   1_455 S
Zn8    N94     1.862   .     S
Zn8    N167    1.862   .     S
Zn9    N118    1.862   .     S
Zn9    N142    1.862   .     S
Zn9    N158    1.862   .     S
Zn9    N191    1.862   1_554 S
Zn10   N110    1.862   .     S
Zn10   N150    1.862   1_455 S
Zn10   N166    1.862   .     S
Zn10   N199    1.862   .     S
Zn11   N46     1.862   .     S
Zn11   N62     1.862   1_455 S
Zn11   N126    1.862   .     S
Zn11   N198    1.862   .     S
Zn12   N54     1.862   .     S
Zn12   N70     1.862   .     S
Zn12   N134    1.862   1_545 S
Zn12   N190    1.862   .     S
C13    N14     1.360   .     S
C13    N15     1.360   .     D
C13    H18     1.084   .     S
N14    C16     1.380   .     S
N15    C17     1.380   .     S
C16    C17     1.378   .     D
C16    H20     1.084   .     S
C17    H19     1.084   .     S
C21    N22     1.360   .     S
C21    N23     1.360   .     D
C21    H26     1.084   .     S
N22    C24     1.380   .     S
N23    Zn1     1.862   1_556 S
N23    C25     1.380   .     S
C24    C25     1.378   .     D
C24    H28     1.084   .     S
C25    H27     1.084   .     S
C29    N30     1.360   .     S
C29    N31     1.360   .     D
C29    H34     1.084   .     S
N30    C32     1.380   .     S
N31    C33     1.380   .     S
C32    C33     1.378   .     D
C32    H36     1.084   .     S
C33    H35     1.084   .     S
C37    N38     1.360   .     S
C37    N39     1.360   .     D
C37    H42     1.084   .     S
N38    Zn8     1.862   1_655 S
N38    C40     1.380   .     S
N39    Zn4     1.862   1_556 S
N39    C41     1.380   .     S
C40    C41     1.378   .     D
C40    H44     1.084   .     S
C41    H43     1.084   .     S
C45    N46     1.360   .     S
C45    N47     1.360   .     D
C45    H50     1.084   .     S
N46    C48     1.380   .     S
N47    C49     1.380   .     S
C48    C49     1.378   .     D
C48    H52     1.084   .     S
C49    H51     1.084   .     S
C53    N54     1.360   .     S
C53    N55     1.360   .     D
C53    H58     1.084   .     S
N54    C56     1.380   .     S
N55    C57     1.380   .     S
C56    C57     1.378   .     D
C56    H60     1.084   .     S
C57    H59     1.084   .     S
C61    N62     1.360   .     S
C61    N63     1.360   .     D
C61    H66     1.084   .     S
N62    Zn11    1.862   1_655 S
N62    C64     1.380   .     S
N63    C65     1.380   .     S
C64    C65     1.378   .     D
C64    H68     1.084   .     S
C65    H67     1.084   .     S
C69    N70     1.360   .     S
C69    N71     1.360   .     D
C69    H74     1.084   .     S
N70    C72     1.380   .     S
N71    C73     1.380   .     S
C72    C73     1.378   .     D
C72    H76     1.084   .     S
C73    H75     1.084   .     S
C77    N78     1.360   .     S
C77    N79     1.360   .     D
C77    H82     1.084   .     S
N78    C80     1.380   .     S
N79    C81     1.380   .     S
C80    C81     1.378   .     D
C80    H84     1.084   .     S
C81    H83     1.084   .     S
C85    N86     1.360   .     S
C85    N87     1.360   .     D
C85    H90     1.084   .     S
N86    Zn5     1.862   1_655 S
N86    C88     1.380   .     S
N87    C89     1.380   .     S
C88    C89     1.378   .     D
C88    H92     1.084   .     S
C89    H91     1.084   .     S
C93    N94     1.360   .     S
C93    N95     1.360   .     D
C93    H98     1.084   .     S
N94    C96     1.380   .     S
N95    C97     1.380   .     S
C96    C97     1.378   .     D
C96    H100    1.084   .     S
C97    H99     1.084   .     S
C101   N102    1.360   .     S
C101   N103    1.360   .     D
C101   H106    1.084   .     S
N102   Zn7     1.862   1_565 S
N102   C104    1.380   .     S
N103   C105    1.380   .     S
C104   C105    1.378   .     D
C104   H108    1.084   .     S
C105   H107    1.084   .     S
C109   N110    1.360   .     S
C109   N111    1.360   .     D
C109   H114    1.084   .     S
N110   C112    1.380   .     S
N111   Zn3     1.862   1_565 S
N111   C113    1.380   .     S
C112   C113    1.378   .     D
C112   H116    1.084   .     S
C113   H115    1.084   .     S
C117   N118    1.360   .     S
C117   N119    1.360   .     D
C117   H122    1.084   .     S
N118   C120    1.380   .     S
N119   C121    1.380   .     S
C120   C121    1.378   .     D
C120   H124    1.084   .     S
C121   H123    1.084   .     S
C125   N126    1.360   .     S
C125   N127    1.360   .     D
C125   H130    1.084   .     S
N126   C128    1.380   .     S
N127   C129    1.380   .     S
C128   C129    1.378   .     D
C128   H132    1.084   .     S
C129   H131    1.084   .     S
C133   N134    1.360   .     S
C133   N135    1.360   .     D
C133   H138    1.084   .     S
N134   Zn12    1.862   1_565 S
N134   C136    1.380   .     S
N135   Zn6     1.862   1_556 S
N135   C137    1.380   .     S
C136   C137    1.378   .     D
C136   H140    1.084   .     S
C137   H139    1.084   .     S
C141   N142    1.360   .     S
C141   N143    1.360   .     D
C141   H146    1.084   .     S
N142   C144    1.380   .     S
N143   C145    1.380   .     S
C144   C145    1.378   .     D
C144   H148    1.084   .     S
C145   H147    1.084   .     S
C149   N150    1.360   .     S
C149   N151    1.360   .     D
C149   H154    1.084   .     S
N150   Zn10    1.862   1_655 S
N150   C152    1.380   .     S
N151   Zn2     1.862   1_565 S
N151   C153    1.380   .     S
C152   C153    1.378   .     D
C152   H156    1.084   .     S
C153   H155    1.084   .     S
C157   N158    1.360   .     S
C157   N159    1.360   .     D
C157   H162    1.084   .     S
N158   C160    1.380   .     S
N159   C161    1.380   .     S
C160   C161    1.378   .     D
C160   H164    1.084   .     S
C161   H163    1.084   .     S
C165   N166    1.360   .     S
C165   N167    1.360   .     D
C165   H170    1.084   .     S
N166   C168    1.380   .     S
N167   C169    1.380   .     S
C168   C169    1.378   .     D
C168   H172    1.084   .     S
C169   H171    1.084   .     S
C173   N174    1.360   .     S
C173   N175    1.360   .     D
C173   H178    1.084   .     S
N174   C176    1.380   .     S
N175   C177    1.380   .     S
C176   C177    1.378   .     D
C176   H180    1.084   .     S
C177   H179    1.084   .     S
C181   N182    1.360   .     S
C181   N183    1.360   .     D
C181   H186    1.084   .     S
N182   C184    1.380   .     S
N183   C185    1.380   .     S
C184   C185    1.378   .     D
C184   H188    1.084   .     S
C185   H187    1.084   .     S
C189   N190    1.360   .     S
C189   N191    1.360   .     D
C189   H194    1.084   .     S
N190   C192    1.380   .     S
N191   Zn9     1.862   1_556 S
N191   C193    1.380   .     S
C192   C193    1.378   .     D
C192   H196    1.084   .     S
C193   H195    1.084   .     S
C197   N198    1.360   .     S
C197   N199    1.360   .     D
C197   H202    1.084   .     S
N198   C200    1.380   .     S
N199   C201    1.380   .     S
C200   C201    1.378   .     D
C200   H204    1.084   .     S
C201   H203    1.084   .     S
