#######################################################################
#
#                 Optimized ZIF CIF
# 
#######################################################################
# 
#  This CIF contains data corresponding to the publication: 
#  "Comparing gas separation performance between all known zeolites and 
#  their Zeolitic Imidazolate Framework counterparts"
#  Paula Gómez-Álvarez1, Said Hamad1, Maciej Haranczyk2, 
#  A. Rabdel Ruiz-Salvador1,* and Sofia Calero1,*  
#  [1] Department of Physical, Chemical and Natural Systems. University 
#  Pablo Olavide. Ctra. Utrera km. 1, 41013, Seville, Spain
#  [2] Lawrence Berkeley National Laboratory, Computational Research 
#  Division, Berkeley, CA 94720 USA 
#
#  ZIF were automatically built with TOBUNPOROUS code:                 
#  Rodriguez-Albelo, L. M.; Ruiz-Salvador, A. R.; Sampieri, A.; Lewis, 
#  D. W.; Gomez, A.; Nohra, B.; Mialane, P.; Marrot, J.; Secheresse, F.; 
#  Mellot-Draznieks, C.; Biboum, R. N.; Keita, B.; Nadjo, L.; Dolbecq, A. 
#  Zeolitic Polyoxometalate-based Metal-Organic Framewroks (Z-POMOFs): 
#  Computational evaluation of hypothetical polymorphs and the successful targeted 
#  synthesis of the redix-active Z-POMOF1. J. Am. Chem. Soc. 2009, 131, 16078
#  
#  Lewis, D. W.; Ruiz-Salvador, A. R.; Gómez, A.; Rodriguez-Albelo, 
#  L. M.; Coudert, F.-X.; Slater, B.; Cheetham, A. K.; Mellot-Draznieks, C.
#  Zeolitic imidazolate frameworks: structural and energetics trends 
#  compared with their zeolite analogues. CrystEngComm 2009, 11, 2272.
#
#  Built ZIF were optimized by energy minimization
#
#  For any question please contact: 
#  Dr. A. Rabdel Ruiz-Salvador rruisal@acu.upo.es
#
####################################################################### 

data_cif

_audit_creation_method             'generated by GULP'

_symmetry_space_group_name_H-M     'P 1'
_symmetry_Int_Tables_number        1
_symmetry_cell_setting             triclinic

_cell_length_a                       23.0710
_cell_length_b                       23.0710
_cell_length_c                       19.5890
_cell_angle_alpha                   76.7170
_cell_angle_beta                   103.2820
_cell_angle_gamma                  117.3470

loop_
_atom_site_label
_atom_site_fract_x
_atom_site_fract_y
_atom_site_fract_z
_atom_site_charge
Zn    0.40625    0.79460    0.19062   2.0000 
Zn    0.79361    0.40615    0.30343   2.0000 
Zn    0.59023    0.20277    0.80343   2.0000 
Zn    0.20178    0.59013    0.69062   2.0000 
Zn    0.21316    0.60530    0.37989   2.0000 
Zn    0.60220    0.21491    0.11250   2.0000 
Zn    0.78148    0.39418    0.61250   2.0000 
Zn    0.39109    0.78322    0.87989   2.0000 
Zn    0.68597    0.98961    0.19891   2.0000 
Zn    0.98876    0.68771    0.29432   2.0000 
Zn    0.30867    0.00762    0.79432   2.0000 
Zn    0.00678    0.31042    0.69891   2.0000 
Zn    0.67301    0.97784    0.89011   2.0000 
Zn    0.97727    0.67280    0.60467   2.0000 
Zn    0.32358    0.01911    0.10467   2.0000 
Zn    0.01854    0.32337    0.39011   2.0000 
Zn    0.93745    0.03272    0.82967   2.0000 
Zn    0.03595    0.94436    0.63034   2.0000 
Zn    0.05202    0.96043    0.13034   2.0000 
Zn    0.96366    0.05893    0.32967   2.0000 
C1    0.11691    0.46075    0.41410   0.0810 
N1    0.18020    0.50705    0.41187  -0.5610 
N1    0.10787    0.40082    0.40329  -0.5610 
C2    0.21306    0.47447    0.39889  -0.1540 
C2    0.16901    0.40977    0.39367  -0.1540 
H1    0.07792    0.47055    0.42347   0.1070 
H2    0.17685    0.36970    0.38382   0.1210 
H2    0.26520    0.49946    0.39431   0.1210 
C1    0.45818    0.11922    0.07851   0.0810 
N1    0.50412    0.18275    0.07977  -0.5610 
N1    0.39801    0.11015    0.08854  -0.5610 
C2    0.47105    0.21576    0.09126  -0.1540 
C2    0.40641    0.17154    0.09660  -0.1540 
H1    0.46841    0.08006    0.07040   0.1070 
H2    0.36606    0.17943    0.10553   0.1210 
H2    0.49568    0.26810    0.09481   0.1210 
C1    0.87716    0.53817    0.57846   0.0810 
N1    0.81362    0.49225    0.57968  -0.5610 
N1    0.88625    0.59835    0.58851  -0.5610 
C2    0.78064    0.52534    0.59118  -0.1540 
C2    0.82487    0.58997    0.59656  -0.1540 
H1    0.91631    0.52793    0.57034   0.1070 
H2    0.81700    0.63033    0.60551   0.1210 
H2    0.72828    0.50073    0.59471   0.1210 
C1    0.53591    0.87918    0.91291   0.0810 
N1    0.48949    0.81596    0.91053  -0.5610 
N1    0.59570    0.88819    0.90166  -0.5610 
C2    0.52184    0.78312    0.89698  -0.1540 
C2    0.58653    0.82711    0.89158  -0.1540 
H1    0.52629    0.91814    0.92271   0.1070 
H2    0.62644    0.81926    0.88133   0.1210 
H2    0.49671    0.73102    0.89215   0.1210 
C1    0.08549    0.62795    0.34060   0.0810 
N1    0.13528    0.62085    0.32283  -0.5610 
N1    0.05608    0.65768    0.28540  -0.5610 
C2    0.13745    0.64765    0.25231  -0.1540 
C2    0.08922    0.67007    0.22951  -0.1540 
H1    0.07085    0.61169    0.39303   0.1070 
H2    0.07622    0.69387    0.17770   0.1210 
H2    0.17296    0.64888    0.22344   0.1210 
C1    0.62602    0.08738    0.14621   0.0810 
N1    0.61389    0.13364    0.16477  -0.5610 
N1    0.65223    0.05559    0.20254  -0.5610 
C2    0.63357    0.13093    0.23704  -0.1540 
C2    0.65692    0.08340    0.26004  -0.1540 
H1    0.61591    0.07697    0.09237   0.1070 
H2    0.67643    0.06751    0.31302   0.1210 
H2    0.62961    0.16284    0.26688   0.1210 
C1    0.90898    0.37026    0.64625   0.0810 
N1    0.86270    0.38239    0.66477  -0.5610 
N1    0.94081    0.34415    0.70262  -0.5610 
C2    0.86543    0.36279    0.73706  -0.1540 
C2    0.91300    0.33950    0.76011  -0.1540 
H1    0.91939    0.38032    0.59242   0.1070 
H2    0.92892    0.32006    0.81310   0.1210 
H2    0.83351    0.36677    0.76687   0.1210 
C1    0.36781    0.91053    0.84036   0.0810 
N1    0.37484    0.86067    0.82267  -0.5610 
N1    0.33808    0.93991    0.78514  -0.5610 
C2    0.34799    0.85842    0.75217  -0.1540 
C2    0.32560    0.90668    0.72931  -0.1540 
H1    0.38412    0.92524    0.89277   0.1070 
H2    0.30179    0.91962    0.67749   0.1210 
H2    0.34670    0.82284    0.72335   0.1210 
C1    0.38736    0.92436    0.13717   0.0810 
N1    0.40324    0.88121    0.18877  -0.5610 
N1    0.36514    0.95948    0.16251  -0.5610 
C2    0.39031    0.88956    0.25031  -0.1540 
C2    0.36710    0.93724    0.23431  -0.1540 
H1    0.39192    0.93013    0.08184   0.1070 
H2    0.35193    0.95677    0.26883   0.1210 
H2    0.39847    0.86115    0.30089   0.1210 
C1    0.91987    0.38094    0.35129   0.0810 
N1    0.87237    0.39044    0.30082  -0.5610 
N1    0.95234    0.35457    0.32777  -0.5610 
C2    0.87497    0.36883    0.24200  -0.1540 
C2    0.92368    0.34697    0.25840  -0.1540 
H1    0.93067    0.39307    0.40447   0.1070 
H2    0.93986    0.32666    0.22575   0.1210 
H2    0.84218    0.37048    0.19284   0.1210 
C1    0.61303    0.07516    0.85177   0.0810 
N1    0.60340    0.12245    0.80106  -0.5610 
N1    0.63950    0.04263    0.82853  -0.5610 
C2    0.62507    0.11964    0.74236  -0.1540 
C2    0.64705    0.07102    0.75908  -0.1540 
H1    0.60091    0.06455    0.90492   0.1070 
H2    0.66743    0.05476    0.72660   0.1210 
H2    0.62333    0.15225    0.69305   0.1210 
C1    0.07207    0.60910    0.63726   0.0810 
N1    0.11524    0.59325    0.68885  -0.5610 
N1    0.03698    0.63137    0.66259  -0.5610 
C2    0.10695    0.60627    0.75038  -0.1540 
C2    0.05929    0.62949    0.73438  -0.1540 
H1    0.06625    0.60448    0.58196   0.1070 
H2    0.03980    0.64472    0.76888   0.1210 
H2    0.13539    0.59815    0.80096   0.1210 
C1    0.83024    0.04458    0.27245   0.0810 
N1    0.76452    0.01252    0.27638  -0.5610 
N1    0.86739    0.03119    0.33314  -0.5610 
C2    0.75985    0.97677    0.34347  -0.1540 
C2    0.82251    0.98815    0.37805  -0.1540 
H1    0.85080    0.07726    0.22599   0.1070 
H2    0.83819    0.96873    0.43117   0.1210 
H2    0.71254    0.94592    0.36183   0.1210 
C1    0.02977    0.82812    0.20781   0.0810 
N1    0.99353    0.76165    0.21361  -0.5610 
N1    0.00719    0.86081    0.14912  -0.5610 
C2    0.94523    0.75176    0.15518  -0.1540 
C2    0.95355    0.81216    0.11590  -0.1540 
H1    0.07206    0.85241    0.24583   0.1070 
H2    0.92519    0.82385    0.06691   0.1210 
H2    0.90851    0.70271    0.14568   0.1210 
C1    0.16807    0.96747    0.70800   0.0810 
N1    0.23453    0.00394    0.71422  -0.5610 
N1    0.13554    0.98987    0.64899  -0.5610 
C2    0.24458    0.05217    0.65572  -0.1540 
C2    0.18428    0.04360    0.61600  -0.1540 
H1    0.14368    0.92517    0.74596   0.1070 
H2    0.17273    0.07184    0.56683   0.1210 
H2    0.29365    0.08902    0.64651   0.1210 
C1    0.95344    0.16611    0.77281   0.0810 
N1    0.98538    0.23190    0.77645  -0.5610 
N1    0.96686    0.12921    0.83370  -0.5610 
C2    0.02107    0.23685    0.84356  -0.1540 
C2    0.00979    0.17431    0.87843  -0.1540 
H1    0.92083    0.14535    0.72642   0.1070 
H2    0.02921    0.15883    0.93164   0.1210 
H2    0.05183    0.28426    0.86171   0.1210 
C1    0.54697    0.88983    0.17004   0.0810 
N1    0.50219    0.82594    0.18222  -0.5610 
N1    0.60932    0.89911    0.20027  -0.5610 
C2    0.53836    0.79292    0.22250  -0.1540 
C2    0.60361    0.83749    0.23349  -0.1540 
H1    0.53433    0.92909    0.13954   0.1070 
H2    0.64613    0.82970    0.26247   0.1210 
H2    0.51528    0.74031    0.24042   0.1210 
C1    0.88791    0.54854    0.32444   0.0810 
N1    0.82531    0.50320    0.30666  -0.5610 
N1    0.89860    0.61048    0.29116  -0.5610 
C2    0.79466    0.53856    0.25939  -0.1540 
C2    0.83931    0.60390    0.24995  -0.1540 
H1    0.92522    0.53660    0.36114   0.1070 
H2    0.83306    0.64592    0.21697   0.1210 
H2    0.74352    0.51489    0.23590   0.1210 
C1    0.44792    0.10837    0.82448   0.0810 
N1    0.49322    0.17104    0.80691  -0.5610 
N1    0.38594    0.09775    0.79142  -0.5610 
C2    0.45779    0.20182    0.76002  -0.1540 
C2    0.39245    0.15717    0.75058  -0.1540 
H1    0.45992    0.07095    0.86087   0.1070 
H2    0.35037    0.16351    0.71784   0.1210 
H2    0.48141    0.25304    0.73676   0.1210 
C1    0.10657    0.44943    0.67011   0.0810 
N1    0.17048    0.49418    0.68228  -0.5610 
N1    0.09727    0.38709    0.70038  -0.5610 
C2    0.20348    0.45802    0.72259  -0.1540 
C2    0.15889    0.39277    0.73362  -0.1540 
H1    0.06732    0.46207    0.63961   0.1070 
H2    0.16666    0.35026    0.76263   0.1210 
H2    0.25609    0.48107    0.74050   0.1210 
C1    0.67307    0.00219    0.03510   0.0810 
N1    0.70954    0.01547    0.09957  -0.5610 
N1    0.70978    0.00826    0.98635  -0.5610 
C2    0.77299    0.03082    0.09107  -0.1540 
C2    0.77314    0.02643    0.02211  -0.1540 
H1    0.62047    0.98828    0.02378   0.1070 
H2    0.81367    0.03492    0.99615   0.1210 
H2    0.81337    0.04373    0.13444   0.1210 
C1    0.99745    0.67047    0.45921   0.0810 
N1    0.01499    0.70637    0.39565  -0.5610 
N1    0.00580    0.70863    0.50748  -0.5610 
C2    0.03561    0.77099    0.40428  -0.1540 
C2    0.03001    0.77237    0.47239  -0.1540 
H1    0.97885    0.61722    0.47019   0.1070 
H2    0.04151    0.81401    0.49817   0.1210 
H2    0.05273    0.81127    0.36158   0.1210 
C1    0.32580    0.99914    0.95912   0.0810 
N1    0.28989    0.98149    0.89561  -0.5610 
N1    0.28764    0.99075    0.00742  -0.5610 
C2    0.22526    0.96074    0.90427  -0.1540 
C2    0.22388    0.96638    0.97236  -0.1540 
H1    0.37907    0.01785    0.97007   0.1070 
H2    0.18224    0.95481    0.99818   0.1210 
H2    0.18498    0.94351    0.86161   0.1210 
C1    0.99442    0.32372    0.53506   0.0810 
N1    0.98051    0.28724    0.59938  -0.5610 
N1    0.98798    0.28686    0.48630  -0.5610 
C2    0.96434    0.22360    0.59077  -0.1540 
C2    0.96888    0.22337    0.52190  -0.1540 
H1    0.00904    0.37645    0.52385   0.1070 
H2    0.95993    0.18270    0.49588   0.1210 
H2    0.95079    0.18316    0.63400   0.1210 
C1    0.99822    0.00152    0.98513   0.0810 
N1    0.98728    0.99796    0.91465  -0.5610 
N1    0.03632    0.97102    0.02322  -0.5610 
C2    0.02039    0.96319    0.90781  -0.1540 
C2    0.05026    0.94678    0.97393  -0.1540 
H1    0.97871    0.02601    0.00842   0.1070 
H2    0.08028    0.91971    0.98927   0.1210 
H2    0.02039    0.95260    0.85665   0.1210 
C1    0.98475    0.99374    0.47739   0.0810 
N1    0.01501    0.95867    0.52343  -0.5610 
N1    0.99592    0.00298    0.40965  -0.5610 
C2    0.04718    0.94496    0.48238  -0.1540 
C2    0.03555    0.97195    0.41308  -0.1540 
H1    0.95496    0.01230    0.49300   0.1070 
H2    0.05262    0.97124    0.36623   0.1210 
H2    0.07593    0.91711    0.50521   0.1210 
C1    0.80859    0.01797    0.84695   0.0810 
N1    0.74176    0.98425    0.83705  -0.5610 
N1    0.83814    0.99806    0.81045  -0.5610 
C2    0.72830    0.94049    0.79165  -0.1540 
C2    0.78700    0.94890    0.77545  -0.1540 
H1    0.83537    0.05651    0.88030   0.1070 
H2    0.79591    0.92347    0.74165   0.1210 
H2    0.67819    0.90660    0.77415   0.1210 
C1    0.02901    0.81347    0.63563   0.0810 
N1    0.99985    0.74751    0.65811  -0.5610 
N1    0.01358    0.84862    0.66960  -0.5610 
C2    0.96389    0.74059    0.70926  -0.1540 
C2    0.97226    0.80218    0.71626  -0.1540 
H1    0.06106    0.83560    0.59506   0.1070 
H2    0.95180    0.81611    0.75099   0.1210 
H2    0.93503    0.69260    0.73696   0.1210 
C1    0.18260    0.96792    0.13518   0.0810 
N1    0.24859    0.99675    0.15757  -0.5610 
N1    0.14768    0.98282    0.17005  -0.5610 
C2    0.25578    0.03191    0.20963  -0.1540 
C2    0.19431    0.02343    0.21722  -0.1540 
H1    0.16027    0.93648    0.09401   0.1070 
H2    0.18059    0.04335    0.25271   0.1210 
H2    0.30386    0.06035    0.23747   0.1210 
C1    0.98984    0.18788    0.35620   0.0810 
N1    0.02418    0.25465    0.34722  -0.5610 
N1    0.00869    0.15855    0.31826  -0.5610 
C2    0.06723    0.26830    0.30091  -0.1540 
C2    0.05780    0.20977    0.28326  -0.1540 
H1    0.95161    0.16098    0.38993   0.1070 
H2    0.08247    0.20103    0.24845   0.1210 
H2    0.10139    0.31842    0.28383   0.1210 
C1    0.39430    0.80819    0.02690   0.0810 
N1    0.36869    0.78020    0.08868  -0.5610 
N1    0.36305    0.76891    0.97527  -0.5610 
C2    0.31833    0.71972    0.07531  -0.1540 
C2    0.31489    0.71284    0.00624  -0.1540 
H1    0.43518    0.85654    0.01960   0.1070 
H2    0.28173    0.67219    0.97713   0.1210 
H2    0.28862    0.68599    0.11565   0.1210 
C1    0.80762    0.39352    0.46916   0.0810 
N1    0.78048    0.37042    0.40594  -0.5610 
N1    0.76572    0.36341    0.51837  -0.5610 
C2    0.71779    0.32295    0.41579  -0.1540 
C2    0.70880    0.31867    0.48426  -0.1540 
H1    0.85723    0.43176    0.47923   0.1070 
H2    0.66611    0.28711    0.51094   0.1210 
H2    0.68414    0.29568    0.37362   0.1210 
C1    0.60280    0.18877    0.96914   0.0810 
N1    0.62594    0.21588    0.90595  -0.5610 
N1    0.63298    0.23063    0.01838  -0.5610 
C2    0.67350    0.27854    0.91584  -0.1540 
C2    0.67779    0.28751    0.98432  -0.1540 
H1    0.56449    0.13918    0.97916   0.1070 
H2    0.70941    0.33017    0.01103   0.1210 
H2    0.70082    0.31216    0.87369   0.1210 
C1    0.18820    0.60207    0.52689   0.0810 
N1    0.21617    0.62767    0.58867  -0.5610 
N1    0.22747    0.63338    0.47525  -0.5610 
C2    0.27663    0.67808    0.57530  -0.1540 
C2    0.28351    0.68155    0.50622  -0.1540 
H1    0.13987    0.56117    0.51960   0.1070 
H2    0.32414    0.71476    0.47709   0.1210 
H2    0.31035    0.70780    0.61564   0.1210 
C1    0.00588    0.00811    0.72658   0.0810 
N1    0.96199    0.02689    0.73956  -0.5610 
N1    0.98841    0.98573    0.66309  -0.5610 
C2    0.91399    0.01572    0.68085  -0.1540 
C2    0.93008    0.99067    0.63427  -0.1540 
H1    0.04998    0.01070    0.76289   0.1070 
H2    0.90424    0.97607    0.58292   0.1210 
H2    0.87197    0.02634    0.67634   0.1210 
C1    0.98531    0.99263    0.22931   0.0810 
N1    0.00599    0.00131    0.16651  -0.5610 
N1    0.97358    0.04345    0.23630  -0.5610 
C2    0.00741    0.06111    0.13180  -0.1540 
C2    0.98767    0.08678    0.17432  -0.1540 
H1    0.97888    0.94985    0.26941   0.1070 
H2    0.98269    0.13259    0.16484   0.1210 
H2    0.02228    0.08112    0.07958   0.1210 
C1    0.31825    0.71308    0.30217   0.0810 
N1    0.37925    0.73741    0.28333  -0.5610 
N1    0.30269    0.65522    0.34706  -0.5610 
C2    0.40366    0.69228    0.31836  -0.1540 
C2    0.35703    0.64222    0.35718  -0.1540 
H1    0.28559    0.73719    0.28344   0.1070 
H2    0.35870    0.59852    0.39110   0.1210 
H2    0.45222    0.69890    0.31325   0.1210 
C1    0.68589    0.29709    0.22564   0.0810 
N1    0.70228    0.35062    0.25672  -0.5610 
N1    0.63691    0.28987    0.16965  -0.5610 
C2    0.66126    0.37888    0.21811  -0.1540 
C2    0.62144    0.34188    0.16508  -0.1540 
H1    0.70932    0.26379    0.24355   0.1070 
H2    0.58339    0.34889    0.12464   0.1210 
H2    0.66325    0.42310    0.23099   0.1210 
C1    0.69934    0.31052    0.72564   0.0810 
N1    0.64579    0.29409    0.75672  -0.5610 
N1    0.70655    0.35953    0.66968  -0.5610 
C2    0.61751    0.33511    0.71813  -0.1540 
C2    0.65452    0.37497    0.66512  -0.1540 
H1    0.73265    0.28710    0.74353   0.1070 
H2    0.64749    0.41302    0.62471   0.1210 
H2    0.57329    0.33308    0.73102   0.1210 
C1    0.28323    0.67813    0.80222   0.0810 
N1    0.25890    0.61714    0.78336  -0.5610 
N1    0.34106    0.69365    0.84716  -0.5610 
C2    0.30399    0.59270    0.81841  -0.1540 
C2    0.35403    0.63930    0.85728  -0.1540 
H1    0.25914    0.71081    0.78348   0.1070 
H2    0.39771    0.63759    0.89123   0.1210 
H2    0.29735    0.54414    0.81329   0.1210 
